@<TRIPOS>MOLECULE
(selection)
32 34 1 0 0
SMALL
NO_CHARGES


@<TRIPOS>ATOM
      1 PG         77.8270   -8.2630   29.3080 P.3       1 GNP593      0.0000
      2 O1G        78.9260   -7.4290   29.7670 O.co2     1 GNP593      0.0000
      3 O2G        78.0130   -8.5810   27.9250 O.co2     1 GNP593      0.0000
      4 O3G        76.5890   -7.3590   29.3360 O.3       1 GNP593      0.0000
      5 N3B        77.5730   -9.5690   30.2630 N.3       1 GNP593      0.0000
      6 PB         76.2780  -10.5620   30.0830 P.3       1 GNP593      0.0000
      7 O1B        75.0780  -10.1360   30.8170 O.co2     1 GNP593      0.0000
      8 O2B        75.9970  -10.9370   28.7250 O.co2     1 GNP593      0.0000
      9 O3A        76.7230  -11.9410   30.7830 O.3       1 GNP593      0.0000
     10 PA         77.2030  -13.3130   30.0540 P.3       1 GNP593      0.0000
     11 O1A        76.0270  -13.9610   29.4060 O.co2     1 GNP593      0.0000
     12 O2A        78.3870  -13.0390   29.2050 O.co2     1 GNP593      0.0000
     13 O5'        77.6450  -14.1780   31.3280 O.3       1 GNP593      0.0000
     14 C5'        78.6900  -13.7000   32.2100 C.3       1 GNP593      0.0000
     15 C4'        79.0290  -14.7910   33.2490 C.3       1 GNP593      0.0000
     16 O4'        77.8800  -15.0540   34.0730 O.3       1 GNP593      0.0000
     17 C3'        79.4520  -16.1400   32.6280 C.3       1 GNP593      0.0000
     18 O3'        80.4680  -16.7540   33.4350 O.3       1 GNP593      0.0000
     19 C2'        78.1340  -16.9460   32.7030 C.3       1 GNP593      0.0000
     20 O2'        78.3830  -18.3620   32.7760 O.3       1 GNP593      0.0000
     21 C1'        77.5670  -16.4530   34.0300 C.3       1 GNP593      0.0000
     22 N9         76.0950  -16.6400   34.1230 N.ar      1 GNP593      0.0000
     23 C8         75.1500  -16.9410   33.1400 C.ar      1 GNP593      0.0000
     24 N7         73.9370  -17.0410   33.5680 N.ar      1 GNP593      0.0000
     25 C5         74.0490  -16.7780   34.9440 C.ar      1 GNP593      0.0000
     26 C6         73.0480  -16.7530   36.0050 C.2       1 GNP593      0.0000
     27 O6         71.8340  -16.9650   35.9200 O.2       1 GNP593      0.0000
     28 N1         73.5990  -16.4450   37.2590 N.am      1 GNP593      0.0000
     29 C2         74.9210  -16.1310   37.4990 C.2       1 GNP593      0.0000
     30 N2         75.3010  -15.7710   38.7400 N.pl3     1 GNP593      0.0000
     31 N3         75.8700  -16.1710   36.5040 N.2       1 GNP593      0.0000
     32 C4         75.3710  -16.5070   35.2750 C.ar      1 GNP593      0.0000
@<TRIPOS>BOND
     1   13   14 1
     2   26   27 2
     3    1    5 1
     4   23   24 ar
     5   14   15 1
     6    1    2 1
     7    1    4 1
     8   24   25 ar
     9   15   16 1
    10   10   11 1
    11   19   20 1
    12    5    6 1
    13    6    7 1
    14   15   17 1
    15   17   18 1
    16   22   23 ar
    17    6    8 1
    18   26   28 am
    19   17   19 1
    20    1    3 1
    21   28   29 1
    22   29   30 2
    23   16   21 1
    24   10   13 1
    25   22   32 ar
    26    9   10 1
    27   19   21 1
    28   29   31 2
    29   25   26 1
    30   21   22 1
    31   25   32 ar
    32    6    9 1
    33   10   12 1
    34   31   32 1
@<TRIPOS>SUBSTRUCTURE
     1 GNP593     15 RESIDUE           4 A     GNP     0 ROOT
